80

 La   9.73448676   2.79266317   1.77787380
 La   9.73448655  -0.22556504   6.51886955
 La   6.48965780   3.49798568   8.88936757
 La  11.35690109   8.02532707   1.77787380
 La  11.35690108   5.00709948   6.51886955
 La   8.11207213   8.73064957   8.88936757
 La   6.48965782   6.51621326   4.14837182
 La   4.86724329   1.28354874   4.14837182
 La   9.73448620   8.37798708   5.33362054
 La   8.11207203   6.16355142   0.59262450
 La   4.86724289   9.88710088   2.96312252
 La   8.11207206   3.14532381   5.33362054
 La   6.48965770   0.93088752   0.59262450
 La   3.24482876   4.65443761   2.96312252
 La   3.24482879   1.63621000   7.70411856
 La   4.86724312   6.86887390   7.70411856
 Co1   9.73448641   5.58532516   3.55574674
 Co1   9.73448649   2.56709753   8.29674306
 Co1   4.86724315   7.09443894   1.18524901
 Co1   8.11207208   0.35266126   3.55574674
 Co1  11.35690082   7.79976142   8.29674306
 Co1   3.24482882   1.86177505   1.18524901
 Co1   6.48965751   9.30887523   5.92624504
 Co1   4.86724318   4.07621133   5.92624504
 Co2   0.00000000   0.00000000   0.00000000
 Co2   3.24482869   7.44710018   4.74099604
 Co2   6.48965767   0.70532248   7.11149405
 Co2   1.62241433   5.23266390   0.00000000
 Co2   1.62241436   2.21443629   4.74099604
 Co2   8.11207200   5.93798638   7.11149405
 Co2   6.48965764   3.72355009   2.37049802
 Mn   8.11207196   8.95621399   2.37049802
 O   10.21334433   5.51203722   1.61601454
 O   10.21334432   2.49380963   6.35701029
 O    6.96851538   6.21735972   8.72750831
 O    8.59093000   0.27937332   1.61601454
 O   11.83575865   7.72647353   6.35701029
 O    5.34610105   0.98469583   8.72750831
 O    6.96851539   9.23558731   3.98651256
 O    5.34610106   4.00292341   3.98651256
 O    9.25562862   5.65861303   5.49547979
 O    7.63321426   3.44417675   0.75448376
 O    4.38838532   7.16772684   3.12498178
 O    7.63321430   0.42594914   5.49547979
 O    9.25562859   8.67684064   0.75448376
 O    2.76597099   1.93506294   3.12498178
 O    6.01079968   9.38216313   7.86597781
 O    4.38838535   4.14949923   7.86597781
 O   10.87803754   4.00292881   3.98650408
 O   10.87803772   0.98470148   8.72750040
 O    6.01079379   5.51204289   1.61600634
 O   12.50045196   9.23559301   3.98650408
 O   12.50045205   6.21736537   8.72750040
 O    4.38837946   0.27937900   1.61600634
 O    7.63320816   7.72647918   6.35700238
 O    6.01079383   2.49381528   6.35700238
 O    8.59093581   7.16772119   3.12498969
 O    8.59093585   4.14949358   7.86598573
 O    3.72369250   8.67683499   0.75449168
 O    6.96852148   1.93505729   3.12498969
 O   10.21335017   9.38215747   7.86598573
 O    2.10127817   3.44417110   0.75449168
 O    2.10127821   0.42594348   5.49548771
 O    3.72369254   5.65860738   5.49548771
 O    8.11207766   4.44834563   3.28684838
 O    8.11207759   1.43011771   8.02784442
 O    3.24483416   5.95745917   0.91634980
 O    9.73449189   9.68100921   3.28684838
 O    9.73449192   6.66278160   8.02784442
 O    1.62241983   0.72479527   0.91634980
 O    4.86724862   8.17189541   5.65734640
 O    3.24483429   2.93923151   5.65734640
 O   11.35689496   6.72230371   3.82464567
 O   11.35689500   3.70407610   8.56564171
 O    6.48965175   8.23141747   1.45414822
 O    9.73448064   1.48963981   3.82464567
 O   12.97930933   8.93674000   8.56564171
 O    4.86723742   2.99875357   1.45414822
 O    4.86723736  -0.01947399   6.19514369
 O    6.48965169   5.21318991   6.19514369
